<?xml version="1.0"?>

<routes> <!-- The opening tag -->

   <!-- Vehicle types -->
   <vType id="passenger" length="5.0" width="2.0" maxSpeed="70.0" accel="2.6" decel="4.5" sigma="0.5"/>

   <!-- Routes + associated vehicles & flows -->
   <route id="trip-0" color="Magenta" edges="169453894 22949651 164158186 34998404#0 34998404#3"/>
   <vehicle id="vehicle-0" type="passenger" color="Yellow" depart="0.0" route="trip-0"/>

   <route id="trip-1" color="Magenta" edges="4400322#0 39606301 189054412 78419225#0 33444803#0 39606300 33302833 147144448 23568396#2 10318490#0 136413965#0 667410648 145345141#0 667410647#0 667410647#1 150039007#0 150039007#1 150039007#2 667410644#0 -8196629#9 -8196629#4 -8196629#3 -8196629#2 25102332 23013042#0 25101966 34999321#2"/>
   <vehicle id="vehicle-1" type="passenger" color="Yellow" depart="0.01" route="trip-1"/>

   <route id="trip-2" color="Magenta" edges="541416569#1 -27290012#2 -27290012#1 -27290012#0 4390554#1 29217219#0 29217219#1 167324659#0 55940134#0 186463490 930736467 930736468 835792564 930736464 930736465 154755102#0 154755102#1 154755102#2 -8096211#2 150031207#8 23493261#0 28542995#0 303244432#0 303244432#1 734784830#0 109063043 23493260#0 23493260#4 23493260#5 23493260#8 303244426 768603506 4400319 48587087 48587086#0 48587086#1 100132117#0 100132117#1 30743982 44037603#0 44037603#1 115844479#0 301750520 250959563 245991947#0 115849682#0 115849682#1 4531783 49601865 26658782#0 552845307 26658784#2 120312036#0 120312036#2 332305006 332287592#0 9621579 37131477#0 36690313#0 332299540#1 332299540#2 48274301#0 36690314#0 36690314#2 4532170#0 19392620#0 19392620#1 19392620#2 132405322#0 30144338"/>
   <vehicle id="vehicle-2" type="passenger" color="Yellow" depart="0.02" route="trip-2"/>

   <route id="trip-3" color="Magenta" edges="710992639 94584108#0 94584108#3 45437755#5 45437755#7 132405253#0 132405253#3 132405253#4 132405253#5 132405253#6 132405253#10 210469110#0 210469110#2 234272627 500272194 500272194-AddedOffRampEdge 32903086 32903086-AddedOffRampEdge 9872554#0 9872554#1 187070212#0 37873571#0 37873571#1 37873571#2 187070213#0 4400324#0 169453889#0-AddedOnRampEdge 169453889#0 203971501#0 10318488#0 10318488#2 4400322#0 39606301 189054412 78419224#1 401880207#0 401880207#1 5667170#0 5667170#2 370457085#0 203486081 48654842 51348099 401880206 313982939 623090131 252773096#0 135788128#1 33814452#0 33814452#1 33814452#2 33814452#4 33814452#5 349603488#0 349603488#1 4391050#0 4391050#2 349603490#0 620340717#0 -620340716 -620340715 -154743411#2 -620340714#2 -180723491#1 -180723489#2 -180723490 -620340712#1 -28889303#0 -620340711#2 31691107 185767958#1-AddedOnRampEdge 185767958#1 36454807#0"/>
   <vehicle id="vehicle-3" type="passenger" color="Yellow" depart="0.03" route="trip-3"/>

   <route id="trip-4" color="Magenta" edges="667410676#0 198358797#0 198358797#4 198358797#5 857814916#0 4391134 386265906#0 31694310 198147973#0 198147973#2 198147972 154755125#0 154755071 930736467 930736468 835792564 930736464 930736465 154755102#0 154755102#1 154755102#2 -8096211#2 150031207#8 23493261#0 28542995#0 303244432#0 303244432#1 734784830#0 109063043 23493260#0 23493260#4 23493260#5 23493260#8 303244426 768603506 48587065#0 48587065#1 146789540#0 146789540#1 768602479 25071937 4400322#0 39606301 189054412 78419224#1 401880207#0 401880207#1 5667170#0 5667170#2 328877108#0 9831835#0 24233181#0 24233181#1 23566855 23916033#0 -23916033#1"/>
   <vehicle id="vehicle-4" type="passenger" color="Yellow" depart="0.04" route="trip-4"/>

   <route id="trip-5" color="Magenta" edges="43086693#1 -8196681#1 -37637984 8195774#0 25101965#0 25101965#2 857811043 25101966 34999321#2 24693845#0 24693845#1 154502572#5 -10212091#3 23015813#0 329890956 27115018#0 198171539#0 198171539#2 169465734#1 169465735#1 501456678 169453887#0 402179132 37873574 175589820 315921077#0 315921077#1 23015860#0 23015860#2 63589540 301750521 23015861#0 44037603#0 44037603#1 32233474#0 142518656#1 23914009#0 23914009#1 23914009#2 288620099 4537892#0 4537892#1 4537892#2 37276374#0 37276374#1 37276374#2"/>
   <vehicle id="vehicle-5" type="passenger" color="Yellow" depart="0.05" route="trip-5"/>

   <route id="trip-6" color="Magenta" edges="169453887#0 4400324#0 169453889#0-AddedOnRampEdge 169453889#0 203971501#0 727302499 4400318#0 4400318#2 4400318#3 48591635#0 23568429 48591634#0 48591634#1 50557487#0 50557487#1 188052918#1 154755085#0 154755085#1 83703647#1 83703647#2 83703647#3 83703647#4 83703645 23493040 64488045 917044790 122989592#0 542512895 23493176#0 154755112#0 154755112#5 154755096 165515970#0 165515970#1 -145261460 -51718611#0"/>
   <vehicle id="vehicle-6" type="passenger" color="Yellow" depart="0.06" route="trip-6"/>

   <route id="trip-7" color="Magenta" edges="129861628#1 129861628#3 129833340#0 129833341#0 917044794#0 129833347 2829323#0 4401673#5 4401673#7 4401673#8 28542886#3 166222937#0 145474195#0 4380937#0 541416569#0 541416569#1 -27290012#2 -27290012#1 -27290012#0 4390554#1 5667168#0 -32064260#3 -219098056 219098057#0 -219018761#1 -219018762#2 -219018762#1 218930183#0"/>
   <vehicle id="vehicle-7" type="passenger" color="Yellow" depart="0.07" route="trip-7"/>

   <route id="trip-8" color="Magenta" edges="23015856#1 23015856#2 23015856#3 63589540 301750521 23015861#0 44037603#0 44037603#1 32233474#0 142518656#1 23914009#0 23914009#1 23914009#2 24037280 82548195#0 373038379 154755092#0 23493807#0 23493807#5 133872755 23694447 130752274#0 24592789#0 -154874104 -176385764#1 -176385764#0 438666271#0 176232057#2 16081930#1 16081930#2"/>
   <vehicle id="vehicle-8" type="passenger" color="Yellow" depart="0.08" route="trip-8"/>

   <route id="trip-9" color="Magenta" edges="-210469371#0 -27002524 415350391#0 415353887 401980147 37131476#0 400528189 675690809#0 675690809#2 675690809#4 675690809#5 675690805 4531785#0 4531785#1 4531785#1-AddedOffRampEdge 204177818#0 383317838 383317839#1 24037708 443178931#0 24040356#0 41836764 24035788#0 37873581 288162958#0 171952936#0 216475699#1 216475699#2 216475699#3 500272217#0 500272215#0 500272213#0 9615451#0 453509785 37873758 364957117 23013528#0 48012544#0 48012544#2 48012544#3 480375808 23393212#0 23393212#1 23393212#2 23393212#3 23393212#4 22598788 37873569#0 22598785 1005819761#0"/>
   <vehicle id="vehicle-9" type="passenger" color="Yellow" depart="0.09" route="trip-9"/>

   <route id="trip-10" color="Magenta" edges="769127825#1 769127825#2 -887572765#1 -769127825#1 -769127825#0 -769127823#2 885156394 885156393 147936181 334427153 328982210 48273910#0 145357157#2 294399315 48274790 332301933#0 332301933#1 400528189 675690809#0 675690809#2 675690809#4 675690809#5 675690805 4531785#0 4531785#1 4531785#1-AddedOffRampEdge 37744239#0 42250018"/>
   <vehicle id="vehicle-10" type="passenger" color="Yellow" depart="0.1" route="trip-10"/>

   <route id="trip-11" color="Magenta" edges="30777828#0 30777828#1 401880207#1 5667170#0 5667170#2 370457085#0 203486081 48654842 51348099 401880206 313982939 623090131 252773096#0 135788128#1 33814452#0 33814452#1 33814452#2 33814452#4 33814452#5 349603488#0 349603488#1 4391050#0 4391050#2 349603490#0 620340717#0 -620340716 -620340715 -154743411#2 -620340714#2 -180723491#1 -180723489#2 -180723490 -620340712#1 -28889303#0 -620340711#2 -620340709#1 -620340705 -147549213 147549213 620340708 620340709#0"/>
   <vehicle id="vehicle-11" type="passenger" color="Yellow" depart="0.11" route="trip-11"/>

   <route id="trip-12" color="Magenta" edges="4045164#0 4045164#5 115106778#0 115106778#2 115106778#3 26784170#0 26784170#3 667410641#0 154502579#0 667410645 667410646 27115018#0 198171539#0 198171539#2 169465734#1 169465735#1 501456678 169453887#0 402179132 37873574 175589820 315921077#0 315921077#1 -315921078#3 -315921078#0 -219188460#6 -219188460#5 -219188460#4 -219188460#3 -219188460#1 -154755109#1 -154755109#0 -63566383 36695921#0 36695921#1 36695921#3 36695920#0 36695920#1 142387043#1 142387043#2 37791102#1 23487183#0 23487155#2 216475699#1 216475699#2 216475699#3 500272217#0 500272215#0 500272213#0 9615451#0 37873582#0 9615512#1 9615512#2 9615512#4 9615512#5 9615512#6 667410650#0 667410650#1 667410650#3 154511602 171772366#0 171772366#1 171772366#2"/>
   <vehicle id="vehicle-12" type="passenger" color="Yellow" depart="0.12" route="trip-12"/>

   <route id="trip-13" color="Magenta" edges="23686956#1 23686956#2 -22873505#1 -22873505#0 200671461 533123612#0 203971501#0 10318488#0 10318488#2 4400322#0 39606301 189054412 78419224#1 401880207#0 401880207#1 5667170#0 5667170#2 370457085#0 203486081 48654842 51348099 401880206 313982939 623090131 252773096#0 135788128#1 33814452#0 33814452#1 33814452#2 33814452#4 33814452#5 349603488#0 349603488#1 4391050#0 4391050#2 349603490#0 620340717#0 -620340716 -620340715 -154743411#2 -620340714#2 -180723491#1 -180723489#2 -180723490 -620340712#1 28889303#1 180723490"/>
   <vehicle id="vehicle-13" type="passenger" color="Yellow" depart="0.13" route="trip-13"/>

   <route id="trip-14" color="Magenta" edges="237420006#0 219188460#0 219188460#2 219188460#4 219188460#5 219188460#6 315921078#0 315921078#1 154755110#0 86415860#0 86415860#1 88680005#1 203971499#0 203971501#0 727302499 4400318#0 4400318#2 4400318#3 48591635#0 23568429 48591634#0 48591634#1 50557487#0 50557487#1 188052918#1 154755085#0 154755085#1 83703647#1 83703647#2 83703647#3 83703647#4"/>
   <vehicle id="vehicle-14" type="passenger" color="Yellow" depart="0.14" route="trip-14"/>

   <route id="trip-15" color="Magenta" edges="186608627 154502580#0 154502580#3 154502580#4 154502580#5 37276378#0 150031250#0 150031250#2 150031257#0 150031257#3 166604273#0 34998402#0 543524588#0 543524590#0 543524593 925248670#0 543524596#0 543524596#2 543524596#4 34998405 37873571#0 37873571#1 37873571#2 187070213#0 4400324#0 169453889#0-AddedOnRampEdge 169453889#0 203971501#0 10318488#0 10318488#2 4400322#0 39606301 189054412 78419224#1 401880207#0 401880207#1 5667170#0 5667170#2 370457085#0 203486081 48654842 51348099 401880206 313982939 623090131 252773096#0 135788128#1 33814452#0 33814452#1 33814452#2 33814452#4 33814452#5 349603488#0 349603488#1 4391050#0 4391050#2 349603490#0 620340717#0 -620340716 -620340715 -154743411#2 -620340714#2 -180723491#1 -180723489#2 -180723490 -620340712#1 -28889303#0 -620340711#2 -620340709#1 -620340705 -147549213 -37705430#2 -36590980#2 -389116216#4 151060324#0 151060324#4 -151060324#5"/>
   <vehicle id="vehicle-15" type="passenger" color="Yellow" depart="0.15" route="trip-15"/>

   <route id="trip-16" color="Magenta" edges="494590272 494590274#0 9615512#4 23013045 23013046#0 23013046#1 23013270 -23013269#1 -23013269#0 23393212#3 22598771#0 22598771#1 51827455#3 51827455#4 51981837 1005819760#0 511322000 -124177563#1 124177563#0"/>
   <vehicle id="vehicle-16" type="passenger" color="Yellow" depart="0.16" route="trip-16"/>

   <route id="trip-17" color="Magenta" edges="22873507#1 22873507#3 22873507#4 187240666#0 667410647#1 150039007#0 150039007#1 150039007#2 667410644#0 154502579#0 667410645 667410646 27115018#0 198171539#0 198171539#2 169465734#1 169465735#1 501456678 169453887#0 402179132 37873574 175589820 315921077#0 315921077#1 -315921078#3 -315921078#0 -219188460#6 -219188460#5 -219188460#4 -219188460#3 -219188460#1 -154755109#1 -154755109#0 -63566383 -288162959 -63530469 32308866#0 37746015#0 4531783 49601865 26658782#0 552845307 26658784#2 120312036#0 120312036#2 332305006 332287592#0 9621579 37131477#0 36690313#0 332299540#1 332299540#2 48274301#0 132405263#0 32856651#0 710992639 94584108#0 94584108#3 94584108#4 94584108#6"/>
   <vehicle id="vehicle-17" type="passenger" color="Yellow" depart="0.17" route="trip-17"/>

   <route id="trip-18" color="Magenta" edges="-205620050 -132405260#1 463353183#0 364970392#0 157339628 15806038#0 500272194 500272194-AddedOffRampEdge 32903086 32903086-AddedOffRampEdge 9872554#0 9872554#1 187070212#0 37873571#0 37873571#1 37873571#2 187070213#0 4400324#0 169453889#0-AddedOnRampEdge 169453889#0 203971501#0 10318488#0 10318488#2 4400322#0 39606301 189054412 78419224#1 401880207#0 401880207#1 5667170#0 5667170#2 370457085#0 203486081 48654842 51348099 4537862#0 24231978 8672022#0 8672022#1 24230765#0"/>
   <vehicle id="vehicle-18" type="passenger" color="Yellow" depart="0.18" route="trip-18"/>

   <route id="trip-19" color="Magenta" edges="198171539#0 198171539#2 169465734#1 169465735#1 501456678 169453887#0 402179132 37873574 175589820 315921077#0 315921077#1 -315921078#3 -315921078#0 -219188460#6 -219188460#5 -219188460#4 -219188460#3 -219188460#1 -154755109#1 -154755109#0 -63566383 -288162959 -63530469 32308866#0 37746015#0 4531783 49601865 26658780#0 451394483#0 210469121#0 210469121#1 210469121#2 51163169 278688171#0 278688173 210469124 34495278#0"/>
   <vehicle id="vehicle-19" type="passenger" color="Yellow" depart="0.19" route="trip-19"/>

   <route id="trip-20" color="Magenta" edges="667410644#0 154502579#0 667410645 667410646 27115018#0 198171539#0 198171539#2 169465734#1 169465735#1 501456678 169453887#0 402179132 37873574 175589820 315921077#0 315921077#1 -315921078#3 -315921078#0 -219188460#6 -219188460#5 -219188460#4 -219188460#3 -219188460#1 -154755109#1 -154755109#0 -63566383"/>
   <vehicle id="vehicle-20" type="passenger" color="Yellow" depart="0.2" route="trip-20"/>

   <route id="trip-21" color="Magenta" edges="533123612#0 -533123612#2 -200671461 22873531#0 -83823403#2 -83823403#0 -83823409#1 -238511108#1 -238511108#0 -69366482 69366483 23567938"/>
   <vehicle id="vehicle-21" type="passenger" color="Yellow" depart="0.21" route="trip-21"/>

   <route id="trip-22" color="Magenta" edges="26155687#0 677243063 677243061 24564005 37705430#0 147549213 620340708 620340709#0 620340711#0 620340706#0 28889303#1 180723490 180723489#0 180723491#0 620340714#0 154743411#0 620340713 620340716 501460458#0 110967368#0 109539742#0 109539742#1 4391001#0 303245743 51348112#0 374831953#0 303245744#0 51348111 252773097 623090133#2 203486082 330663743#0 200763473 33386769#0 33444803#0 39606300 33302833 147144449 5667165#0 48591706#0 48591706#1 204025234#0 204025234#1 48587086#1 100132117#0 100132117#1 30743982 44037603#0 44037603#1 115844479#0 301750520 250959563 245991947#0 115849682#0 115849682#1 4531783 49601865 26658780#0 451394483#0 210469121#0 210469121#1 210469121#2 51163169 278688171#0 278688173 210469124 34495278#0 278688167#1 303241371#0 303241385#0 132408325#0 132408325#2 132408325#3 132408325#5 926885767#0 926885767#1"/>
   <vehicle id="vehicle-22" type="passenger" color="Yellow" depart="0.22" route="trip-22"/>

   <route id="trip-23" color="Magenta" edges="48456085#1 -48456085#1 -48456085#0 51348112#0 374831953#0 303245744#0 51348111 252773097 623090133#2 203486082 330663743#0 200763473 33386769#0 33444803#0 39606300 33302833 147144449 5667165#0 48591706#0 48591706#1 204025234#0 204025234#1 48587086#1 100132117#0 100132117#1 30743982 44037603#0 44037603#1 115844479#0 301750520 250959563 245991947#0 115849682#0 115849682#1 4531783 49601865 26658782#0 552845307 26658784#2 120312036#0 120312036#2 332305006 332287592#0 9621579 37131477#0 36690313#0 332299540#1 332299540#2 48274301#0 36690314#0 36690314#2 48273909 -328982210 -334427153 -147936181 885157057#0 885157057#1 423345352 885157055"/>
   <vehicle id="vehicle-23" type="passenger" color="Yellow" depart="0.23" route="trip-23"/>

   <route id="trip-24" color="Magenta" edges="-885164363 954885239#0 460788491#1 885164364#3 769127826 886181497 887572760#1 964582878 -887572765#2 -887572765#1 -769127825#1 -769127825#0 -769127823#2 885156394 885156393 147936181 334427153 328982210 48273910#0 145357157#2 294399315 48274790 332301933#0 332301933#1 400528189 675690809#0 675690809#2 675690809#4 675690809#5 675690805 4531785#0 4531785#1 4531785#1-AddedOffRampEdge 204177818#0 383317838 383317839#1 24037708 443178931#0 24040356#0 41836764 288162962#0 171952941 410644376 155570075#0 400528193 111465046#0 156976894 675775079 465425612#0 100138582#4 100138582#5 100138582#6 23686464#0 -141206207 -141206215#1 -141206211 -487009001#1 536950979 141206202 -141206202"/>
   <vehicle id="vehicle-24" type="passenger" color="Yellow" depart="0.24" route="trip-24"/>

   <route id="trip-25" color="Magenta" edges="150031205#6 145474195#0 -167324659#2 167324659#0 55940134#0 186463490 930736467 930736468 835792564 930736464 930736465 154755102#0 154755102#1 154755102#2 -8096211#2 150031207#8 23493261#0 28542995#0 303244432#0 303244432#1 734784830#0 109063043 23493260#0 23493260#4 23493260#5 23493260#8 303244426 768603506 4400319 48587087 48587086#0 48587086#1 100132117#0 100132117#1 30743982 44037603#0 44037603#1 115844479#0 301750520 250959563 245991947#0 115849682#0 115849682#1 4531783 49601865 26658782#0 552845307 26658784#2 120312036#0 120312036#2 332305006 332287592#0 9621579 27002966#0 995343657 995343654#0 555483868 415352314#0 415350389 -44638123 -44638121#0 -565922464 -565922467 -50752510#1"/>
   <vehicle id="vehicle-25" type="passenger" color="Yellow" depart="0.25" route="trip-25"/>

   <route id="trip-26" color="Magenta" edges="52336762 -52336762 22598791#0 32903236#1 31951782#0 31951782#1 636113045 23014984 22949995#0 22949995#1 332017311 237420006#0 -154755109#1 -154755109#0 -63566383 -288162959 -63530469 32308866#0 37746015#0 4531783 49601865 26658782#0 552845307 8035202#2 132405241#0 132405242#0 132405242#1 132405269 -132405259#3 132405259#3"/>
   <vehicle id="vehicle-26" type="passenger" color="Yellow" depart="0.26" route="trip-26"/>

   <route id="trip-27" color="Magenta" edges="45437755#5 45437755#7 132405253#0 132405253#3 132405253#4 132405253#5 132405253#6 132405253#10 210469110#0 210469110#2 234272627 500272194 500272194-AddedOffRampEdge 32903086 32903086-AddedOffRampEdge 9872554#0 -479545489#1 -479545489#0 -32008097#1 -32007885#4 -32007885#1 154511600#0 154511600#1 -203322740#2 877599646 23393212#0 23393212#1 23393212#2 23393212#3 23393212#4 22598788 37873569#0 23393211 26229488#0"/>
   <vehicle id="vehicle-27" type="passenger" color="Yellow" depart="0.27" route="trip-27"/>

   <route id="trip-28" color="Magenta" edges="154502573#0 154502572#0 154502572#1 154502572#2 154502572#3 154502572#4 154502572#5 20187845#0 20187845#1 -154507101 8196629#2 8196629#3 8196629#4 8196629#5 9823971#0 9823971#1 24900427#0 24900427#1 24900427#2 8225124#2 8142293#0 8142293#2"/>
   <vehicle id="vehicle-28" type="passenger" color="Yellow" depart="0.28" route="trip-28"/>

   <route id="trip-29" color="Magenta" edges="-315921078#3 -315921078#0 -219188460#6 -219188460#5 -219188460#4 -219188460#3 219188460#2 219188460#4 219188460#5 219188460#6 315921078#0 315921078#1 154755110#0 86415860#0 86415860#1 88680005#1 203971499#0 203971501#0 10318488#0 10318488#2 4400322#0 39606301 189054412 78419224#1 401880207#0 401880207#1 5667170#0 5667170#2 370457085#0 203486081 48654842 51348099 401880206 313982939 623090131 252773096#0 135788128#1 33814452#0 33814452#1 33814452#2 33814452#4 33814452#5 349603488#0 349603488#1 4391050#0 4391050#2 349603490#0 620340717#0 -620340716 -620340715 -154743411#2 -620340714#2 -180723491#1 -180723489#2 -180723490 -620340712#1 600108058#0 180722318#0 313981600#3"/>
   <vehicle id="vehicle-29" type="passenger" color="Yellow" depart="0.29" route="trip-29"/>

   <route id="trip-30" color="Magenta" edges="-206149612#2 -7976570 7976572#0 7976572#1 901827384 -23572047 -349914644 -8677666 8677666"/>
   <vehicle id="vehicle-30" type="passenger" color="Yellow" depart="0.3" route="trip-30"/>

   <route id="trip-31" color="Magenta" edges="23487158#1 23487158#2 23014984 22949995#0 22949995#1 332017311 237420006#0 -154755109#1 -154755109#0 -63566383 -288162959 -63530469 32308866#0 37746015#0 4531783 49601865 26658780#0 451394483#0 210469121#0 210469121#1 210469121#2 51163169 278688171#0 278688173 210469124 -615910290 -679832903 679832903 297582263#0"/>
   <vehicle id="vehicle-31" type="passenger" color="Yellow" depart="0.31" route="trip-31"/>

   <route id="trip-32" color="Magenta" edges="22949995#1 332017311 237420006#0 -154755109#1 -154755109#0 -63566383 -288162959 -63530469 288162960#0 37873577 41836764 288162962#0 171952941 410644376 155570090#0 155570098 527349386 526775560 16081495 60739804#0 -31901074 -33971538#1 -24592809 -372313445#1 -306387100 -33805058#1 -206149612#2 -7976570 7976572#0 7976572#1 -23543178#2"/>
   <vehicle id="vehicle-32" type="passenger" color="Yellow" depart="0.32" route="trip-32"/>

   <route id="trip-33" color="Magenta" edges="-132405351#2 132405351#2 132405349#0 114692777 132405284#1 210469110#2 234272627 500272194 500272194-AddedOffRampEdge 32903086 32903086-AddedOffRampEdge 9872554#0 9872554#1 187070212#0 37873571#0 37873571#1 37873571#2 187070213#0 4400324#0 169453889#0-AddedOnRampEdge 169453889#0 203971501#0 10318488#0"/>
   <vehicle id="vehicle-33" type="passenger" color="Yellow" depart="0.33" route="trip-33"/>

   <route id="trip-34" color="Magenta" edges="132405244#1 132405285#4 132405285#6 132405285#7 120312036#2 332305006 332287591 149665000 675690809#4 675690809#5 675690805 4531785#0 4531785#1 4531785#1-AddedOffRampEdge 37744239#0 42250018 42250017 115851528#0 142518652#0 32111896 142518656#1 38527899#0 30743981#0 117679358 303244429#0 303244424 23692033#0 25071937 4400322#0 39606301 189054412 78419224#1 401880207#0 401880207#1 5667170#0 5667170#2 370457085#0 203486081 48654842 51348099 401880206 313982939 623090131 252773096#0 135788128#1 33814452#0 33814452#1 33814452#2 33814452#4 33814452#5 349603488#0 349603488#1 4391050#0 4391050#2 349603490#0 620340717#0 -620340716 -620340715 -154743411#2 -620340714#2 -180723491#1 -180723489#2 -180723490 -620340712#1 600108058#0 4378522#0 4378522#1 4378522#3"/>
   <vehicle id="vehicle-34" type="passenger" color="Yellow" depart="0.34" route="trip-34"/>

   <route id="trip-35" color="Magenta" edges="293814015#4 132405266#2 992479899#1 132405285#0 132405285#1 132405285#2 132405285#4 132405285#6 132405285#7 120312036#2 332305006 332287591 149665000 675690809#4 675690809#5 675690805 4531785#0 4531785#1 4531785#1-AddedOffRampEdge 37744239#0 42250018 42250017 115851528#0 142518652#0 32111896 142518656#1 38527899#0 30743981#0 117679358 303244429#0 303244424 303244422#0 188052918#1 154755085#0 154755085#1 83703647#1 83703647#2 83703647#3 83703647#4 83703645 23493040 64488045 917044790 122989592#0 542512895 23493176#0 154755112#0 154755112#5 154755096 -8225101 27598888#0"/>
   <vehicle id="vehicle-35" type="passenger" color="Yellow" depart="0.35" route="trip-35"/>

   <route id="trip-36" color="Magenta" edges="16081930#2 16081501#1 372202212 -24592789#2 -130752274#1 -130752273 -133872755 -133872754 -23493807#3 -154755092#2 -373038379 -82548195#3 318067901#0 245991949#0 301750520 250959563 245991947#0 115849682#0 115849682#1 4531783 49601865 26658780#0 451394483#0 210469121#0 210469121#1 210469121#2 51163169 278688171#0 20907575#0 20907575#2 210469123#0 17096049#0"/>
   <vehicle id="vehicle-36" type="passenger" color="Yellow" depart="0.36" route="trip-36"/>

   <route id="trip-37" color="Magenta" edges="194017207#0 194017207#2 194017207#3 132405223#0 132405223#4 132405223#5 132405223#7 132405223#9 926885765#0 926885765#1 926885764 132408326#0 303241382#3 303241382#4 303241370#0 303241370#1 303241370#2 303241367#0 303241367#1 303241367#2 303241369#0 27432052#1 27432052#3 210469123#0 210469123#4 132405363#0 205615363 463353183#0 364970392#0 157339628 15806038#0 500272194 500272194-AddedOffRampEdge 32903086 32903086-AddedOffRampEdge 9872554#0 9872554#1 187070212#0 37873571#0 37873571#1 37873571#2 187070213#0 4400324#0 169453889#0-AddedOnRampEdge 169453889#0 203971501#0 10318488#0 10318488#2 4400322#0 39606301 189054412 78419224#1 401880207#0 401880207#1 5667170#0 5667170#2 370457085#0 203486081 48654842 51348099 401880206 313982939 623090131 252773096#0 135788128#1 33814452#0 33814452#1 33814452#2 33814452#4 33814452#5 349603488#0 349603488#1 4391050#0 4391050#2 349603490#0 620340717#0 -620340716 -620340715 -154743411#2 -620340714#2 -180723491#1 -180723489#2 -180723490 -620340712#1 -28889303#0 -620340711#2 -620340709#1 -620340705"/>
   <vehicle id="vehicle-37" type="passenger" color="Yellow" depart="0.37" route="trip-37"/>

   <route id="trip-38" color="Magenta" edges="30081449#1 44037603#1 115844479#0 301750520 250959563 245991947#0 115849682#0 115849682#1 4531783 49601865 26658782#0 552845307 26658784#2 120312036#0 120312036#2 332305006 332287592#0 9621579 27002966#0 995343657 995343654#0 555483868 415352314#0 415350389 -44638123 -44638121#0 -565922464 -565922467 44684426 59850455#0"/>
   <vehicle id="vehicle-38" type="passenger" color="Yellow" depart="0.38" route="trip-38"/>

   <route id="trip-39" color="Magenta" edges="-48826945#2 -39764938#1 -315921078#3 -315921078#0 -219188460#6 -219188460#5 -219188460#4 -219188460#3 -219188460#1 -154755109#1 -154755109#0 -63566383 -288162959 -63530469 32308866#0 37746015#0 4531783 49601865 26658782#0 552845307 26658784#2 120312036#0 120312036#2 332305006 332287592#0 9621579 37131477#0 36690313#0 132405274#0 132405285#0"/>
   <vehicle id="vehicle-39" type="passenger" color="Yellow" depart="0.39" route="trip-39"/>

   <route id="trip-40" color="Magenta" edges="132405266#2 992479899#1 132405285#0 132405285#1 132405285#2 132405285#4 132405285#6 132405285#7 120312036#2 332305006 332287591 149665000 675690809#4 675690809#5 675690805 4531785#0 4531785#1 4531785#1-AddedOffRampEdge 204177818#0 383317838 383317839#1 24037708 443178931#0 24040356#0 41836764 24035788#0 37873581 142301793 142389698 37791102#0 37791102#1 37791102#2 37791102#3 37791102#4 22949991 202650028#1 202650029#0 202650029#1 405531873#0 154755109#1 219188460#0 219188460#2 219188460#4 219188460#5 219188460#6 315921078#0 315921078#1 154755110#0 86415848 175589819#0 175589819#1 175589819#2 154333001#1 169453888#0 145345137#0 667410647#0 667410647#1 150039007#0 150039007#1 150039007#2 667410644#0 9823971#0 9823971#1 9823971#2 9823971#3 857811041#0 51081171#0 51081171#1 51081171#2 906649715 751168040#0 751168040#1 115106777#0 115106777#2 27404213#0 118041104#0 26704778#8 115106778#0 115106778#2"/>
   <vehicle id="vehicle-40" type="passenger" color="Yellow" depart="0.4" route="trip-40"/>

   <route id="trip-41" color="Magenta" edges="565922467 565922464 44638121#0 44638121#1 415350391#0 415353887 401980147 37131476#0 400528189 675690809#0 675690809#2 675690809#4 675690809#5 675690805 4531785#0 4531785#1 4531785#1-AddedOffRampEdge 37744239#0 42250018 42250017 115851528#0 142518652#0 32111896 142518656#1 38527899#0 30743981#0 117679358 303244429#0 303244424 23692033#0 25071937 4400322#0 39606301 189054412 78419224#1 401880207#0 401880207#1 5667170#0 5667170#2 370457085#0 203486081 48654842 51348099 401880206 313982939 623090131 252773096#0 135786926#0 -350444361#2 -8677670#1 -24456691#3 -24456691#2 -24456691#1 -24456691#0 27463257#0 -513972758#3 -513972758#1 -66389905#2 -513972757 -154738024#2 -6186579#0 -213185325#5 -213185325#4"/>
   <vehicle id="vehicle-41" type="passenger" color="Yellow" depart="0.41" route="trip-41"/>

   <route id="trip-42" color="Magenta" edges="-27002524 415350391#0 415353887 401980147 37131476#0 400528189 20826917#0 149664993#0 27003200#4 27003199#0 27003199#1 27003199#2 460783478"/>
   <vehicle id="vehicle-42" type="passenger" color="Yellow" depart="0.42" route="trip-42"/>

   <route id="trip-43" color="Magenta" edges="329049398#1 -133872754 -23493807#3 -154755092#2 -373038379 -82548195#3 318067901#0 245991949#0 301750520 250959563 115849681#0 250959560 47892504#0 63530469 288162959 63566383 202654192#0 154755109#1 219188460#0 219188460#2 219188460#4 219188460#5 219188460#6 315921078#0 315921078#1 154755110#0 86415848 175589819#0 175589819#1 175589819#2 154333001#1 169453888#0 145345146#0 169453895 169453894 22949651 164158186 34998404#0 154502573#0 154502572#0 154502572#1 22598782"/>
   <vehicle id="vehicle-43" type="passenger" color="Yellow" depart="0.43" route="trip-43"/>

   <route id="trip-44" color="Magenta" edges="-27003199#0 27003200#0 27003200#1 149664997#0 675690809#5 675690805 4531785#0 4531785#1 4531785#1-AddedOffRampEdge 204177818#0 383317838 383317839#1 24037708 443178931#0 24040356#0 41836764 24035788#0 37873581 142301793 142389698 37791102#0 37791102#1 37791102#2 37791102#3 37791102#4 22949991 202650028#1 202650029#0 202650029#1 405531875#0 -63566383 -30095780#1"/>
   <vehicle id="vehicle-44" type="passenger" color="Yellow" depart="0.44" route="trip-44"/>

   <route id="trip-45" color="Magenta" edges="-8677666 8677666 349914644 23572047 204177817 7976570 206149612#0 33805058#0 306387100 372313445#0 632980691 33971538#0 31901074 391820861 131959462#0 154874107#0 154874107#3 176385764#1 154874104 -154874104"/>
   <vehicle id="vehicle-45" type="passenger" color="Yellow" depart="0.45" route="trip-45"/>

   <route id="trip-46" color="Magenta" edges="4400211#2 4400211#3 4400211#5 130875842 154755088#0 131651824 130997388#0 130997388#1 130659365 393422408#0 393422408#1 4400215#0 50628731#0 50628731#2 150031207#5 8096211#0 26519352#0 8096212 948795440 -954759852 4356393#0 8142293#0 8142293#2 8142293#3 8142293#4 8142293#5 8142293#6 9823971#1"/>
   <vehicle id="vehicle-46" type="passenger" color="Yellow" depart="0.46" route="trip-46"/>

   <route id="trip-47" color="Magenta" edges="175589819#2 154333001#1 169453888#0 145345146#0 169453895 169453894 22949651 164158186 543524596#4 480054079 9872533#0 9872533#1 22598774 32011876 -32011876"/>
   <vehicle id="vehicle-47" type="passenger" color="Yellow" depart="0.47" route="trip-47"/>

   <route id="trip-48" color="Magenta" edges="415350391#0 415353887 401980147 37131476#0 400528189 675690809#0 675690809#2 675690809#4 675690809#5 675690805 4531785#0 4531785#1 4531785#1-AddedOffRampEdge 37744239#0 42250018 42250017 115851528#0 142518652#0 32111896 142518656#1 38527899#0 30743981#0 117679358 303244429#0 303244424 23692033#0 25071937 4400322#0 39606301 189054412 78419224#1 401880207#0 401880207#1 5667170#0 71900685#0 200763473 4400455#0 4400455#1 4400455#2 -32930555#2"/>